# generated using pymatgen
data_MnO
_symmetry_space_group_name_H-M   'P 1'
_cell_length_a   3.16770085
_cell_length_b   3.20364697
_cell_length_c   4.48906700
_cell_angle_alpha   90.00000000
_cell_angle_beta   90.00000000
_cell_angle_gamma   90.00000000
_symmetry_Int_Tables_number   1
_chemical_formula_structural   MnO
_chemical_formula_sum   'Mn2 O2'
_cell_volume   45.55592834
_cell_formula_units_Z   2
loop_
 _symmetry_equiv_pos_site_id
 _symmetry_equiv_pos_as_xyz
  1  'x, y, z'
loop_
 _atom_site_type_symbol
 _atom_site_label
 _atom_site_symmetry_multiplicity
 _atom_site_fract_x
 _atom_site_fract_y
 _atom_site_fract_z
 _atom_site_occupancy
  Mn  Mn0  1  0.76164700  0.50000000  0.00000000  1
  Mn  Mn1  1  0.23835300  0.00000000  0.50000000  1
  O  O2  1  0.25818700  0.00000000  0.00000000  1
  O  O3  1  0.74181300  0.50000000  0.50000000  1
