# generated using pymatgen
data_Y3Fe5O12
_symmetry_space_group_name_H-M   'P 1'
_cell_length_a   12.3563
_cell_length_b   12.3563
_cell_length_c   12.3563
_cell_angle_alpha   90.00000000
_cell_angle_beta   90.00000000
_cell_angle_gamma   90.00000000
_symmetry_Int_Tables_number   1
_chemical_formula_structural   Y3Fe5O12
_chemical_formula_sum   'Y24 Fe40 O96'
_cell_volume   1886.5370210145466
_cell_formula_units_Z   8
loop_
 _symmetry_equiv_pos_site_id
 _symmetry_equiv_pos_as_xyz
  1  'x, y, z'
loop_
 _atom_site_type_symbol
 _atom_site_label
 _atom_site_symmetry_multiplicity
 _atom_site_fract_x
 _atom_site_fract_y
 _atom_site_fract_z
 _atom_site_occupancy
  Y  Y0  1  0.00000000  0.25000000  0.12500000  1
  Y  Y1  1  0.62500000  0.00000000  0.25000000  1
  Y  Y2  1  0.50000000  0.25000000  0.37500000  1
  Y  Y3  1  0.50000000  0.25000000  0.87500000  1
  Y  Y4  1  0.37500000  0.50000000  0.25000000  1
  Y  Y5  1  0.00000000  0.25000000  0.62500000  1
  Y  Y6  1  0.25000000  0.37500000  0.50000000  1
  Y  Y7  1  0.25000000  0.87500000  0.50000000  1
  Y  Y8  1  0.87500000  0.50000000  0.25000000  1
  Y  Y9  1  0.25000000  0.12500000  0.00000000  1
  Y  Y10  1  0.25000000  0.62500000  0.00000000  1
  Y  Y11  1  0.12500000  0.00000000  0.25000000  1
  Y  Y12  1  0.50000000  0.75000000  0.62500000  1
  Y  Y13  1  0.12500000  0.50000000  0.75000000  1
  Y  Y14  1  0.00000000  0.75000000  0.87500000  1
  Y  Y15  1  0.00000000  0.75000000  0.37500000  1
  Y  Y16  1  0.87500000  0.00000000  0.75000000  1
  Y  Y17  1  0.50000000  0.75000000  0.12500000  1
  Y  Y18  1  0.75000000  0.87500000  0.00000000  1
  Y  Y19  1  0.75000000  0.37500000  0.00000000  1
  Y  Y20  1  0.37500000  0.00000000  0.75000000  1
  Y  Y21  1  0.75000000  0.62500000  0.50000000  1
  Y  Y22  1  0.75000000  0.12500000  0.50000000  1
  Y  Y23  1  0.62500000  0.50000000  0.75000000  1
  Fe  Fe24  1  0.37500000  0.50000000  0.75000000  1
  Fe  Fe25  1  0.00000000  0.25000000  0.37500000  1
  Fe  Fe26  1  0.00000000  0.00000000  0.50000000  1
  Fe  Fe27  1  0.50000000  0.75000000  0.37500000  1
  Fe  Fe28  1  0.25000000  0.25000000  0.75000000  1
  Fe  Fe29  1  0.25000000  0.37500000  0.00000000  1
  Fe  Fe30  1  0.50000000  0.00000000  0.00000000  1
  Fe  Fe31  1  0.25000000  0.12500000  0.50000000  1
  Fe  Fe32  1  0.12500000  0.50000000  0.25000000  1
  Fe  Fe33  1  0.75000000  0.12500000  0.00000000  1
  Fe  Fe34  1  0.75000000  0.25000000  0.25000000  1
  Fe  Fe35  1  0.75000000  0.37500000  0.50000000  1
  Fe  Fe36  1  0.00000000  0.00000000  0.00000000  1
  Fe  Fe37  1  0.00000000  0.75000000  0.12500000  1
  Fe  Fe38  1  0.37500000  0.00000000  0.25000000  1
  Fe  Fe39  1  0.25000000  0.75000000  0.25000000  1
  Fe  Fe40  1  0.12500000  0.00000000  0.75000000  1
  Fe  Fe41  1  0.50000000  0.25000000  0.12500000  1
  Fe  Fe42  1  0.25000000  0.25000000  0.25000000  1
  Fe  Fe43  1  0.00000000  0.50000000  0.00000000  1
  Fe  Fe44  1  0.87500000  0.00000000  0.25000000  1
  Fe  Fe45  1  0.50000000  0.75000000  0.87500000  1
  Fe  Fe46  1  0.50000000  0.50000000  0.00000000  1
  Fe  Fe47  1  0.00000000  0.25000000  0.87500000  1
  Fe  Fe48  1  0.75000000  0.75000000  0.25000000  1
  Fe  Fe49  1  0.75000000  0.87500000  0.50000000  1
  Fe  Fe50  1  0.00000000  0.50000000  0.50000000  1
  Fe  Fe51  1  0.75000000  0.62500000  0.00000000  1
  Fe  Fe52  1  0.62500000  0.00000000  0.75000000  1
  Fe  Fe53  1  0.25000000  0.62500000  0.50000000  1
  Fe  Fe54  1  0.25000000  0.75000000  0.75000000  1
  Fe  Fe55  1  0.25000000  0.87500000  0.00000000  1
  Fe  Fe56  1  0.50000000  0.50000000  0.50000000  1
  Fe  Fe57  1  0.50000000  0.25000000  0.62500000  1
  Fe  Fe58  1  0.87500000  0.50000000  0.75000000  1
  Fe  Fe59  1  0.75000000  0.25000000  0.75000000  1
  Fe  Fe60  1  0.62500000  0.50000000  0.25000000  1
  Fe  Fe61  1  0.00000000  0.75000000  0.62500000  1
  Fe  Fe62  1  0.75000000  0.75000000  0.75000000  1
  Fe  Fe63  1  0.50000000  0.00000000  0.50000000  1
  O  O64  1  0.15114100  0.47396300  0.94298600  1
  O  O65  1  0.02603700  0.44298600  0.15114100  1
  O  O66  1  0.59885900  0.30701400  0.72396300  1
  O  O67  1  0.44298600  0.15114100  0.02603700  1
  O  O68  1  0.30701400  0.22396300  0.40114100  1
  O  O69  1  0.80701400  0.27603700  0.59885900  1
  O  O70  1  0.52603700  0.44298600  0.34885900  1
  O  O71  1  0.69298600  0.22396300  0.90114100  1
  O  O72  1  0.02603700  0.55701400  0.34885900  1
  O  O73  1  0.77603700  0.90114100  0.19298600  1
  O  O74  1  0.15114100  0.97396300  0.05701400  1
  O  O75  1  0.19298600  0.77603700  0.90114100  1
  O  O76  1  0.55701400  0.34885900  0.02603700  1
  O  O77  1  0.65114100  0.02603700  0.05701400  1
  O  O78  1  0.94298600  0.15114100  0.47396300  1
  O  O79  1  0.34885900  0.47396300  0.05701400  1
  O  O80  1  0.22396300  0.59885900  0.19298600  1
  O  O81  1  0.05701400  0.65114100  0.02603700  1
  O  O82  1  0.22396300  0.40114100  0.30701400  1
  O  O83  1  0.84885900  0.47396300  0.44298600  1
  O  O84  1  0.90114100  0.19298600  0.77603700  1
  O  O85  1  0.22396300  0.90114100  0.69298600  1
  O  O86  1  0.27603700  0.59885900  0.80701400  1
  O  O87  1  0.05701400  0.34885900  0.47396300  1
  O  O88  1  0.34885900  0.52603700  0.44298600  1
  O  O89  1  0.09885900  0.19298600  0.27603700  1
  O  O90  1  0.44298600  0.84885900  0.47396300  1
  O  O91  1  0.44298600  0.34885900  0.52603700  1
  O  O92  1  0.27603700  0.90114100  0.30701400  1
  O  O93  1  0.30701400  0.72396300  0.59885900  1
  O  O94  1  0.30701400  0.27603700  0.90114100  1
  O  O95  1  0.72396300  0.59885900  0.30701400  1
  O  O96  1  0.47396300  0.05701400  0.34885900  1
  O  O97  1  0.27603700  0.09885900  0.19298600  1
  O  O98  1  0.97396300  0.05701400  0.15114100  1
  O  O99  1  0.05701400  0.15114100  0.97396300  1
  O  O100  1  0.47396300  0.94298600  0.15114100  1
  O  O101  1  0.59885900  0.19298600  0.22396300  1
  O  O102  1  0.90114100  0.30701400  0.27603700  1
  O  O103  1  0.15114100  0.02603700  0.44298600  1
  O  O104  1  0.19298600  0.27603700  0.09885900  1
  O  O105  1  0.59885900  0.80701400  0.27603700  1
  O  O106  1  0.34885900  0.02603700  0.55701400  1
  O  O107  1  0.47396300  0.44298600  0.84885900  1
  O  O108  1  0.19298600  0.22396300  0.59885900  1
  O  O109  1  0.02603700  0.05701400  0.65114100  1
  O  O110  1  0.40114100  0.30701400  0.22396300  1
  O  O111  1  0.90114100  0.69298600  0.22396300  1
  O  O112  1  0.65114100  0.97396300  0.44298600  1
  O  O113  1  0.52603700  0.94298600  0.65114100  1
  O  O114  1  0.09885900  0.80701400  0.22396300  1
  O  O115  1  0.94298600  0.65114100  0.52603700  1
  O  O116  1  0.80701400  0.72396300  0.90114100  1
  O  O117  1  0.30701400  0.77603700  0.09885900  1
  O  O118  1  0.02603700  0.94298600  0.84885900  1
  O  O119  1  0.19298600  0.72396300  0.40114100  1
  O  O120  1  0.52603700  0.05701400  0.84885900  1
  O  O121  1  0.27603700  0.40114100  0.69298600  1
  O  O122  1  0.65114100  0.47396300  0.55701400  1
  O  O123  1  0.69298600  0.27603700  0.40114100  1
  O  O124  1  0.05701400  0.84885900  0.52603700  1
  O  O125  1  0.15114100  0.52603700  0.55701400  1
  O  O126  1  0.44298600  0.65114100  0.97396300  1
  O  O127  1  0.84885900  0.97396300  0.55701400  1
  O  O128  1  0.72396300  0.09885900  0.69298600  1
  O  O129  1  0.55701400  0.15114100  0.52603700  1
  O  O130  1  0.72396300  0.90114100  0.80701400  1
  O  O131  1  0.34885900  0.97396300  0.94298600  1
  O  O132  1  0.40114100  0.69298600  0.27603700  1
  O  O133  1  0.72396300  0.40114100  0.19298600  1
  O  O134  1  0.77603700  0.09885900  0.30701400  1
  O  O135  1  0.55701400  0.84885900  0.97396300  1
  O  O136  1  0.84885900  0.02603700  0.94298600  1
  O  O137  1  0.59885900  0.69298600  0.77603700  1
  O  O138  1  0.94298600  0.34885900  0.97396300  1
  O  O139  1  0.94298600  0.84885900  0.02603700  1
  O  O140  1  0.77603700  0.40114100  0.80701400  1
  O  O141  1  0.80701400  0.22396300  0.09885900  1
  O  O142  1  0.80701400  0.77603700  0.40114100  1
  O  O143  1  0.22396300  0.09885900  0.80701400  1
  O  O144  1  0.97396300  0.55701400  0.84885900  1
  O  O145  1  0.77603700  0.59885900  0.69298600  1
  O  O146  1  0.47396300  0.55701400  0.65114100  1
  O  O147  1  0.55701400  0.65114100  0.47396300  1
  O  O148  1  0.97396300  0.44298600  0.65114100  1
  O  O149  1  0.09885900  0.69298600  0.72396300  1
  O  O150  1  0.40114100  0.80701400  0.77603700  1
  O  O151  1  0.65114100  0.52603700  0.94298600  1
  O  O152  1  0.69298600  0.77603700  0.59885900  1
  O  O153  1  0.09885900  0.30701400  0.77603700  1
  O  O154  1  0.84885900  0.52603700  0.05701400  1
  O  O155  1  0.97396300  0.94298600  0.34885900  1
  O  O156  1  0.69298600  0.72396300  0.09885900  1
  O  O157  1  0.52603700  0.55701400  0.15114100  1
  O  O158  1  0.90114100  0.80701400  0.72396300  1
  O  O159  1  0.40114100  0.19298600  0.72396300  1
