# generated using pymatgen
data_MRG
_symmetry_space_group_name_H-M   'P 1'
_cell_length_a   5.955
_cell_length_b   5.955
_cell_length_c   5.955
_cell_angle_alpha   90.00000000
_cell_angle_beta   90.00000000
_cell_angle_gamma   90.00000000
_symmetry_Int_Tables_number   1
_chemical_formula_structural   MnRuGa
_chemical_formula_sum   'Mn4 Ru2 Ga2'
_cell_volume   214.2261
_cell_formula_units_Z   4
loop_
 _symmetry_equiv_pos_site_id
 _symmetry_equiv_pos_as_xyz
  1  'x, y, z'
loop_
 _atom_site_type_symbol
 _atom_site_label
 _atom_site_symmetry_multiplicity
 _atom_site_fract_x
 _atom_site_fract_y
 _atom_site_fract_z
 _atom_site_occupancy
Mn	Mnc1	1	0.75	0.75	0.25	1
Mn	Mnc2	1	0.25	0.75	0.75	1
Mn	Mnc3	1	0.75	0.25	0.75	1
Mn	Mnc4	1	0.25	0.25	0.25	1
Ru	Ru1		1	0.75	0.75	0.75	1
Ru	Ru2		1	0.25	0.75	0.25	1
Ru	Ru3		1	0.25	0.25	0.75	1
Ru	Ru4		1	0.75	0.25	0.25	1
Mn	Mna1	1	0.00	0.00	0.00	1
Mn	Mna2	1	0.00	0.50	0.50	1
Mn	Mna3	1	0.50	0.00	0.50	1
Mn	Mna4	1	0.50	0.50	0.00	1
Ga	Ga1		1	0.50	0.50	0.50	1
Ga	Ga2		1	0.50	0.00	0.00	1
Ga	Ga3		1	0.00	0.50	0.00	1
Ga	Ga4		1	0.00	0.00	0.50	1