# generated using pymatgen
data_Mn2RuGa_tetra
_symmetry_space_group_name_H-M   'P 1'
_cell_length_a   4.2420
_cell_length_b   4.2420
_cell_length_c   5.9812
_cell_angle_alpha   90.00
_cell_angle_beta   90.00
_cell_angle_gamma   90.00
_symmetry_Int_Tables_number   1
_chemical_formula_structural   data_Mn2RuGa
_chemical_formula_sum   'Mn4 Ru2 Ga2'
_cell_volume   107.629086
_cell_formula_units_Z   2
loop_
 _symmetry_equiv_pos_site_id
 _symmetry_equiv_pos_as_xyz
  1  'x, y, z'
loop_
 _atom_site_label
 _atom_site_type_symbol
 _atom_site_symmetry_multiplicity
 _atom_site_fract_x
 _atom_site_fract_y
 _atom_site_fract_z
 _atom_site_occupancy
  Mn_2a  Mn  1  0.50  0.50  0.00  1
  Mn_2a  Mn  1  0.00  0.00  0.50  1
  Ga_2b  Ga  1  0.00  0.00  0.00  1
  Ga_2b  Ga  1  0.50  0.50  0.50  1
  Mn_2c  Mn  1  0.50  0.00  0.25  1
  Mn_2c  Mn  1  0.00  0.50  0.75  1
  Ru_2d  Ru  1  0.50  0.00  0.75  0.9
  Ru_2d  Ru  1  0.00  0.50  0.25  0.9
